// Generated for: spectre
// Generated on: Mar 15 22:06:14 2024
// Design library name: ece4740
// Design cell name: lab2_decoder_sim
// Design view name: schematic
simulator lang=spectre
global 0 vdd!
include "/opt/cadence-designkits/gpdk090_v3.9/libs.oa22/gpdk090/../../models/spectre/gpdk090.scs" section=NN

// Library name: ece4740
// Cell name: lab2_decoder
// View name: av_extracted
// View type: maskLayout
subckt lab2_decoder A B Y0 Y1 Y2 Y3
    c1 (\2\:B \25\:gnd!) capacitor c=5.83194e-17
    c2 (\58\:vdd! \12\:net2) capacitor c=8.69637e-18
    c3 (\4\:net6 \15\:A) capacitor c=2.74235e-18
    c4 (\5\:net3 \10\:net1) capacitor c=4.59025e-17
    c5 (\11\:A \1\:gnd!) capacitor c=2.58121e-17
    c6 (\14\:net1 \25\:vdd!) capacitor c=3.52789e-18
    c7 (\2\:A vdd!) capacitor c=7.32918e-18
    c8 (vdd! \1\:gnd!) capacitor c=2.41972e-17
    c9 (\4\:net6 \5\:vdd!) capacitor c=7.78975e-18
    c10 (\4\:vdd! \17\:B) capacitor c=8.69637e-18
    c11 (\19\:gnd! \20\:net2) capacitor c=3.85854e-18
    c12 (\6\:B \18\:gnd!) capacitor c=1.31462e-17
    c13 (\14\:A \4\:vdd!) capacitor c=3.13116e-17
    c14 (\12\:B \14\:net5) capacitor c=1.13906e-18
    c15 (\9\:net3 \10\:net1) capacitor c=7.31444e-18
    c16 (\4\:net3 \12\:net2) capacitor c=2.45967e-18
    c17 (\18\:net1 \1\:gnd!) capacitor c=2.47361e-17
    c18 (\5\:net6 \17\:A) capacitor c=3.07295e-18
    c19 (\4\:net1 \25\:gnd!) capacitor c=2.90756e-18
    c20 (\58\:vdd! \13\:net1) capacitor c=8.69637e-18
    c21 (\10\:net2 \59\:vdd!) capacitor c=1.84769e-17
    c22 (\12\:B \17\:A) capacitor c=3.86826e-18
    c23 (\14\:net5 \1\:gnd!) capacitor c=2.36455e-17
    c24 (\19\:net2 \1\:gnd!) capacitor c=3.38814e-18
    c25 (\9\:net5 \17\:vdd!) capacitor c=2.818e-18
    c26 (\5\:net6 \16\:B) capacitor c=1.39994e-18
    c27 (A \1\:gnd!) capacitor c=3.02417e-17
    c28 (A \75\:vdd!) capacitor c=1.27085e-17
    c29 (\4\:net6 \17\:B) capacitor c=3.1076e-18
    c30 (net2 B) capacitor c=3.06306e-17
    c31 (B \4\:net1) capacitor c=2.57451e-17
    c32 (\4\:gnd! \5\:net6) capacitor c=2.97755e-18
    c33 (\8\:net1 \8\:B) capacitor c=6.50956e-18
    c34 (\19\:gnd! \10\:B) capacitor c=6.07474e-18
    c35 (\4\:net3 \13\:net1) capacitor c=2.77108e-18
    c36 (\17\:A \1\:gnd!) capacitor c=2.69692e-17
    c37 (\4\:net1 \10\:net2) capacitor c=1.10254e-17
    c38 (\18\:gnd! \9\:net4) capacitor c=1.29129e-18
    c39 (\14\:A \17\:vdd!) capacitor c=3.74354e-17
    c40 (Y1 \10\:net4) capacitor c=1.61879e-17
    c41 (B \1\:gnd!) capacitor c=1.51557e-17
    c42 (\23\:vdd! \1\:gnd!) capacitor c=1.59421e-17
    c43 (B \68\:vdd!) capacitor c=1.19758e-17
    c44 (\8\:net1 Y0) capacitor c=5.91271e-18
    c45 (\5\:net6 \4\:vdd!) capacitor c=7.78567e-18
    c46 (\9\:net3 Y0) capacitor c=4.06119e-18
    c47 (Y0 \17\:net2) capacitor c=1.3454e-18
    c48 (\17\:net2 \1\:Y0) capacitor c=5.43776e-19
    c49 (\12\:B \14\:net6) capacitor c=6.74812e-18
    c50 (\13\:net2 \59\:vdd!) capacitor c=2.46135e-17
    c51 (\16\:B \1\:gnd!) capacitor c=2.61641e-17
    c52 (\9\:net4 \40\:vdd!) capacitor c=2.37649e-18
    c53 (\14\:A \5\:vdd!) capacitor c=2.81876e-17
    c54 (\11\:net2 \58\:vdd!) capacitor c=9.38485e-18
    c55 (Y0 \1\:gnd!) capacitor c=2.96653e-18
    c56 (\16\:A \5\:vdd!) capacitor c=2.51267e-17
    c57 (\5\:net6 \13\:A) capacitor c=4.03914e-17
    c58 (Y0 \51\:vdd!) capacitor c=1.66952e-17
    c59 (\9\:net4 Y1) capacitor c=3.25381e-17
    c60 (\2\:A \57\:vdd!) capacitor c=8.52138e-18
    c61 (\5\:net4 \8\:B) capacitor c=5.26027e-17
    c62 (\14\:net1 Y1) capacitor c=6.18554e-18
    c63 (\14\:net6 \1\:gnd!) capacitor c=4.20237e-17
    c64 (\9\:B \1\:gnd!) capacitor c=3.59137e-18
    c65 (\12\:net2 \13\:net1) capacitor c=1.43015e-17
    c66 (\4\:gnd! \12\:B) capacitor c=6.8869e-17
    c67 (\5\:net6 \5\:vdd!) capacitor c=1.56953e-17
    c68 (\25\:gnd! \5\:net3) capacitor c=1.38901e-18
    c69 (Y1 \1\:gnd!) capacitor c=2.9208e-18
    c70 (\14\:A \4\:net6) capacitor c=3.37746e-18
    c71 (net2 \2\:A) capacitor c=1.11023e-16
    c72 (Y1 \34\:vdd!) capacitor c=1.69811e-17
    c73 (\4\:net3 \59\:vdd!) capacitor c=3.98249e-18
    c74 (\57\:vdd! \1\:gnd!) capacitor c=1.59284e-17
    c75 (\9\:net5 Y2) capacitor c=4.06119e-18
    c76 (\1\:A \1\:gnd!) capacitor c=1.11678e-17
    c77 (\9\:net4 \8\:B) capacitor c=1.37604e-17
    c78 (\8\:A \40\:vdd!) capacitor c=1.35245e-17
    c79 (Y2 \1\:gnd!) capacitor c=4.91135e-18
    c80 (\5\:net6 \16\:A) capacitor c=1.46906e-17
    c81 (\1\:A \75\:vdd!) capacitor c=3.35568e-17
    c82 (\8\:A \8\:B) capacitor c=9.96209e-18
    c83 (\18\:net2 \11\:B) capacitor c=1.43032e-17
    c84 (\5\:net3 \10\:net2) capacitor c=4.01554e-17
    c85 (\1\:B \1\:gnd!) capacitor c=8.59673e-18
    c86 (\11\:net1 \59\:vdd!) capacitor c=4.32842e-17
    c87 (Y2 \17\:vdd!) capacitor c=1.70594e-17
    c88 (\12\:B \13\:A) capacitor c=1.16387e-17
    c89 (\2\:B net2) capacitor c=1.32342e-17
    c90 (\25\:gnd! \8\:net1) capacitor c=7.75806e-18
    c91 (\9\:net6 Y3) capacitor c=4.06119e-18
    c92 (Y3 \1\:gnd!) capacitor c=5.03338e-18
    c93 (\15\:B \5\:vdd!) capacitor c=4.30851e-17
    c94 (\9\:net6 \4\:gnd!) capacitor c=3.82104e-18
    c95 (\6\:B \13\:gnd!) capacitor c=4.93941e-17
    c96 (A \2\:net2) capacitor c=3.3645e-17
    c97 (\11\:net2 \2\:A) capacitor c=2.44347e-16
    c98 (\14\:net1 \8\:B) capacitor c=3.24344e-18
    c99 (\1\:B \68\:vdd!) capacitor c=4.12795e-17
    c100 (\11\:net2 \4\:net3) capacitor c=1.80955e-17
    c101 (Y3 \1\:vdd!) capacitor c=2.51101e-17
    c102 (\9\:net6 \1\:vdd!) capacitor c=6.21182e-18
    c103 (\9\:A \19\:net1) capacitor c=1.43032e-17
    c104 (\17\:net2 \9\:B) capacitor c=3.1947e-18
    c105 (\2\:B \4\:net1) capacitor c=1.02951e-16
    c106 (\9\:net6 \4\:vdd!) capacitor c=4.48161e-18
    c107 (\7\:A \10\:net4) capacitor c=2.3739e-18
    c108 (\8\:net1 \10\:net2) capacitor c=3.71466e-18
    c109 (\12\:B \4\:Y2) capacitor c=1.95862e-18
    c110 (\10\:net1 \1\:gnd!) capacitor c=5.84762e-18
    c111 (\14\:net1 \10\:net4) capacitor c=1.54887e-18
    c112 (\10\:A \1\:gnd!) capacitor c=3.38814e-18
    c113 (\5\:net4 \19\:net2) capacitor c=1.35762e-17
    c114 (\5\:net6 \15\:B) capacitor c=1.15894e-17
    c115 (\8\:A \16\:net1) capacitor c=7.24764e-18
    c116 (\9\:net2 \59\:vdd!) capacitor c=1.88204e-17
    c117 (\5\:net5 \16\:net1) capacitor c=5.19276e-17
    c118 (Y0 \16\:net2) capacitor c=4.8054e-18
    c119 (\4\:net1 \11\:net2) capacitor c=3.36251e-17
    c120 (\7\:A \25\:vdd!) capacitor c=2.61366e-17
    c121 (\8\:A net4) capacitor c=1.48041e-18
    c122 (\2\:net2 B) capacitor c=6.25478e-18
    c123 (\10\:net1 \59\:vdd!) capacitor c=1.89833e-17
    c124 (\15\:A \17\:B) capacitor c=1.44412e-17
    c125 (\17\:net2 \2\:A) capacitor c=1.36711e-17
    c126 (\2\:B \8\:net1) capacitor c=1.18304e-16
    c127 (\41\:vdd! \18\:net2) capacitor c=8.69637e-18
    c128 (\4\:vdd! \1\:gnd!) capacitor c=5.21294e-17
    c129 (\5\:net4 \9\:B) capacitor c=1.09214e-17
    c130 (\2\:A \2\:net2) capacitor c=5.20707e-18
    c131 (\5\:net3 \11\:net2) capacitor c=6.64818e-17
    c132 (\8\:B \1\:gnd!) capacitor c=1.1564e-17
    c133 (\17\:net1 \1\:gnd!) capacitor c=3.50502e-18
    c134 (\2\:net2 \1\:A) capacitor c=9.76664e-18
    c135 (\4\:net4 \18\:net2) capacitor c=2.72519e-18
    c136 (\8\:net1 \11\:net2) capacitor c=9.84939e-18
    c137 (\10\:net4 \1\:gnd!) capacitor c=1.51138e-17
    c138 (\4\:net6 \16\:A) capacitor c=5.79432e-18
    c139 (\2\:net2 \3\:A) capacitor c=3.20325e-18
    c140 (\41\:vdd! \11\:B) capacitor c=8.69637e-18
    c141 (\9\:net3 \11\:net2) capacitor c=3.5005e-17
    c142 (\8\:net1 \5\:net3) capacitor c=7.78817e-17
    c143 (\8\:A \24\:vdd!) capacitor c=6.41705e-17
    c144 (\41\:vdd! \1\:gnd!) capacitor c=5.06338e-17
    c145 (Y1 \7\:A) capacitor c=6.08452e-18
    c146 (\15\:net2 \42\:vdd!) capacitor c=1.83863e-17
    c147 (net2 \3\:B) capacitor c=3.71139e-18
    c148 (\4\:net5 \25\:vdd!) capacitor c=7.81774e-18
    c149 (\4\:net4 \11\:B) capacitor c=3.1076e-18
    c150 (\14\:net2 \12\:net1) capacitor c=1.38288e-17
    c151 (\8\:A net5) capacitor c=1.48041e-18
    c152 (\13\:gnd! \5\:net5) capacitor c=1.78976e-18
    c153 (\8\:net1 \9\:net3) capacitor c=7.32987e-17
    c154 (\8\:B \42\:vdd!) capacitor c=1.98416e-17
    c155 (\13\:A \4\:net6) capacitor c=4.58233e-18
    c156 (\5\:net6 \14\:B) capacitor c=5.19326e-17
    c157 (\4\:net5 \10\:A) capacitor c=5.79432e-18
    c158 (\5\:net5 \24\:vdd!) capacitor c=2.65879e-18
    c159 (\8\:net1 \17\:net2) capacitor c=4.06255e-17
    c160 (\16\:A \1\:gnd!) capacitor c=3.39222e-18
    c161 (\13\:gnd! \11\:A) capacitor c=3.85854e-18
    c162 (\8\:net1 \5\:net4) capacitor c=6.67556e-17
    c163 (\5\:net5 \7\:A) capacitor c=4.03685e-17
    c164 (\9\:net3 \17\:net2) capacitor c=3.85733e-17
    c165 (\10\:net4 \34\:vdd!) capacitor c=4.02349e-17
    c166 (\11\:net2 \13\:net1) capacitor c=2.62749e-18
    c167 (\19\:net2 \42\:vdd!) capacitor c=2.36743e-17
    c168 (\9\:net6 \14\:B) capacitor c=9.02813e-18
    c169 (\13\:gnd! \14\:net1) capacitor c=8.75501e-18
    c170 (\20\:net2 \10\:B) capacitor c=1.38273e-17
    c171 (\8\:net1 \6\:B) capacitor c=2.6975e-16
    c172 (Y2 \13\:A) capacitor c=6.12536e-18
    c173 (\14\:B \1\:gnd!) capacitor c=1.41229e-17
    c174 (\8\:A \4\:net5) capacitor c=3.37746e-18
    c175 (\19\:gnd! \16\:net2) capacitor c=2.52321e-18
    c176 (\3\:A \75\:vdd!) capacitor c=3.02215e-17
    c177 (\9\:net6 \3\:gnd!) capacitor c=6.53773e-18
    c178 (\6\:A \25\:vdd!) capacitor c=1.84374e-17
    c179 (\17\:net2 \12\:net3) capacitor c=3.65721e-18
    c180 (\15\:B \1\:gnd!) capacitor c=3.61804e-18
    c181 (\13\:gnd! \18\:net1) capacitor c=6.07474e-18
    c182 (\14\:net1 \7\:A) capacitor c=1.70961e-17
    c183 (\8\:net1 \8\:A) capacitor c=8.01201e-18
    c184 (\9\:net6 \3\:vdd!) capacitor c=6.31558e-18
    c185 (\16\:net1 \25\:vdd!) capacitor c=2.64419e-17
    c186 (\9\:net5 \13\:gnd!) capacitor c=2.06895e-18
    c187 (\3\:B \68\:vdd!) capacitor c=3.04539e-17
    c188 (\2\:A \1\:gnd!) capacitor c=8.06271e-17
    c189 (\8\:A \12\:net3) capacitor c=2.58832e-18
    c190 (\9\:B \42\:vdd!) capacitor c=4.30579e-17
    c191 (\11\:A \18\:net1) capacitor c=1.38255e-17
    c192 (\17\:net2 \11\:B) capacitor c=3.32216e-18
    c193 (\2\:A \75\:vdd!) capacitor c=3.64778e-17
    c194 (\9\:net5 \24\:vdd!) capacitor c=1.83899e-18
    c195 (net2 \1\:gnd!) capacitor c=2.74375e-17
    c196 (\13\:net2 \11\:net1) capacitor c=1.84589e-17
    c197 (\12\:net2 \59\:vdd!) capacitor c=2.84359e-17
    c198 (\17\:net2 \8\:A) capacitor c=1.50686e-16
    c199 (\4\:net6 \15\:B) capacitor c=5.55426e-18
    c200 (\2\:A \68\:vdd!) capacitor c=2.74204e-17
    c201 (net2 \75\:vdd!) capacitor c=1.31111e-17
    c202 (\4\:net4 \19\:net2) capacitor c=5.75806e-18
    c203 (\2\:B \1\:gnd!) capacitor c=9.69834e-17
    c204 (\5\:net4 \8\:A) capacitor c=1.91504e-17
    c205 (\6\:B \9\:net4) capacitor c=1.44975e-18
    c206 (\13\:net1 \59\:vdd!) capacitor c=2.97738e-17
    c207 (\2\:A \59\:vdd!) capacitor c=2.33251e-17
    c208 (\3\:vdd! \1\:gnd!) capacitor c=1.71971e-17
    c209 (net2 \68\:vdd!) capacitor c=3.25689e-18
    c210 (\19\:net2 \9\:B) capacitor c=1.84589e-17
    c211 (\8\:A \12\:net4) capacitor c=5.10238e-18
    c212 (\8\:net1 \19\:gnd!) capacitor c=4.46563e-18
    c213 (\4\:net1 \1\:gnd!) capacitor c=2.5926e-17
    c214 (\4\:net5 \17\:net1) capacitor c=5.61224e-18
    c215 (\12\:A \5\:vdd!) capacitor c=1.84659e-17
    c216 (\12\:net3 \51\:vdd!) capacitor c=2.97999e-17
    c217 (\14\:net1 \5\:net4) capacitor c=6.96525e-18
    c218 (\17\:A \16\:B) capacitor c=1.41068e-17
    c219 (\6\:B \5\:net5) capacitor c=1.64437e-18
    c220 (\9\:net4 \8\:A) capacitor c=2.47392e-17
    c221 (\24\:vdd! \9\:A) capacitor c=8.69637e-18
    c222 (\11\:net2 \1\:gnd!) capacitor c=2.07961e-17
    c223 (\14\:B \5\:vdd!) capacitor c=2.57595e-17
    c224 (\4\:net1 \68\:vdd!) capacitor c=1.05272e-17
    c225 (\6\:B \24\:gnd!) capacitor c=1.31462e-17
    c226 (\8\:A \19\:net1) capacitor c=3.56806e-18
    c227 (\8\:net1 \16\:net2) capacitor c=1.54457e-17
    c228 (\14\:net1 \6\:B) capacitor c=3.12388e-16
    c229 (\40\:vdd! \1\:gnd!) capacitor c=1.59284e-17
    c230 (\18\:net2 \42\:vdd!) capacitor c=2.73848e-17
    c231 (\2\:B \5\:A) capacitor c=4.77749e-18
    c232 (\10\:A \17\:net1) capacitor c=1.84589e-17
    c233 (\11\:net2 \68\:vdd!) capacitor c=4.24428e-18
    c234 (\4\:net5 \9\:A) capacitor c=2.74235e-18
    c235 (\14\:net1 \9\:net4) capacitor c=8.32068e-17
    c236 (\5\:net5 \8\:A) capacitor c=1.93747e-17
    c237 (\16\:net2 \42\:vdd!) capacitor c=1.7954e-17
    c238 (\11\:B \42\:vdd!) capacitor c=3.06483e-17
    c239 (\8\:net1 \1\:gnd!) capacitor c=4.80417e-17
    c240 (\4\:net1 \5\:B) capacitor c=6.79273e-18
    c241 (\2\:A \81\:vdd!) capacitor c=6.73113e-18
    c242 (\25\:gnd! \14\:net2) capacitor c=3.85854e-18
    c243 (\24\:vdd! \19\:net1) capacitor c=8.69637e-18
    c244 (\11\:net2 \59\:vdd!) capacitor c=1.86176e-17
    c245 (\14\:net1 \8\:A) capacitor c=3.31348e-17
    c246 (\2\:B \14\:net2) capacitor c=3.19317e-18
    c247 (\14\:A \12\:net5) capacitor c=5.36307e-18
    c248 (\9\:net3 \1\:gnd!) capacitor c=9.04863e-18
    c249 (\12\:B \13\:gnd!) capacitor c=1.10988e-17
    c250 (\12\:net4 \34\:vdd!) capacitor c=3.20256e-17
    c251 (\5\:net3 \59\:vdd!) capacitor c=1.16675e-17
    c252 (\9\:net5 \8\:A) capacitor c=1.01411e-17
    c253 (\14\:net1 \5\:net5) capacitor c=7.36671e-17
    c254 (\5\:net5 \10\:A) capacitor c=1.35762e-17
    c255 (\5\:net3 \14\:net2) capacitor c=1.8822e-18
    c256 (\17\:net2 \1\:gnd!) capacitor c=1.4772e-17
    c257 (\4\:net5 \19\:net1) capacitor c=3.1076e-18
    c258 (\17\:net2 \41\:vdd!) capacitor c=6.2753e-18
    c259 (\74\:vdd! \1\:gnd!) capacitor c=3.09416e-17
    c260 (\25\:gnd! \12\:net1) capacitor c=6.07474e-18
    c261 (\8\:net1 \14\:net2) capacitor c=2.32379e-18
    c262 (\2\:net2 \1\:gnd!) capacitor c=5.36928e-18
    c263 (\4\:net4 \9\:B) capacitor c=5.55426e-18
    c264 (\5\:net3 \12\:net1) capacitor c=1.332e-18
    c265 (\9\:A \25\:vdd!) capacitor c=2.76119e-17
    c266 (\5\:net4 \1\:gnd!) capacitor c=9.39217e-19
    c267 (\19\:gnd! \5\:net4) capacitor c=1.6385e-18
    c268 (\16\:A \15\:B) capacitor c=1.84589e-17
    c269 (\8\:A \57\:vdd!) capacitor c=4.6741e-18
    c270 (\19\:net1 \25\:vdd!) capacitor c=3.06704e-17
    c271 (\8\:net1 \14\:net3) capacitor c=3.22054e-18
    c272 (\6\:B \1\:gnd!) capacitor c=1.71764e-16
    c273 (\4\:net4 \42\:vdd!) capacitor c=7.78639e-18
    c274 (\9\:net5 \12\:gnd!) capacitor c=2.74809e-18
    c275 (\5\:net4 \41\:vdd!) capacitor c=2.65879e-18
    c276 (\9\:net3 \51\:vdd!) capacitor c=1.65082e-18
    c277 (\5\:net5 \17\:net1) capacitor c=1.08356e-17
    c278 (\10\:A \25\:vdd!) capacitor c=2.51267e-17
    c279 (\9\:net4 \1\:gnd!) capacitor c=1.08075e-17
    c280 (\9\:net5 \23\:vdd!) capacitor c=2.58624e-18
    c281 (\4\:net3 \13\:net2) capacitor c=5.29439e-18
    c282 (\5\:net4 \16\:net2) capacitor c=4.03969e-17
    c283 (\9\:net5 \14\:A) capacitor c=1.44838e-17
    c284 (\11\:net2 \11\:net1) capacitor c=2.46195e-18
    c285 (\12\:net5 \17\:vdd!) capacitor c=3.20256e-17
    c286 (\2\:net2 \75\:vdd!) capacitor c=1.84417e-17
    c287 (\17\:net2 \51\:vdd!) capacitor c=8.23605e-18
    c288 (\2\:A \74\:vdd!) capacitor c=1.98441e-17
    c289 (\19\:gnd! \6\:B) capacitor c=7.1378e-17
    c290 (\5\:net3 \13\:net2) capacitor c=1.37374e-17
    c291 (\8\:A \1\:gnd!) capacitor c=5.63264e-17
    c292 (\2\:A net3) capacitor c=2.16682e-18
    c293 (\5\:net4 \20\:net2) capacitor c=1.8822e-18
    c294 (\17\:net2 \42\:vdd!) capacitor c=1.49716e-17
    c295 (\5\:A \1\:gnd!) capacitor c=3.07398e-17
    c296 (\17\:net2 \4\:net4) capacitor c=1.14559e-17
    c297 (\6\:B \20\:net2) capacitor c=3.85113e-18
    c298 (\10\:net2 \4\:net3) capacitor c=2.13022e-18
    c299 (\15\:A \5\:vdd!) capacitor c=2.77538e-17
    c300 (\24\:vdd! \1\:gnd!) capacitor c=5.06338e-17
    c301 (\5\:net5 \1\:gnd!) capacitor c=9.3796e-19
    c302 (\5\:net4 \10\:B) capacitor c=1.34286e-18
    c303 (\12\:B \9\:net5) capacitor c=2.49869e-17
    c304 (\5\:net4 \42\:vdd!) capacitor c=1.14583e-17
    c305 (\5\:B \1\:gnd!) capacitor c=2.36308e-17
    c306 (net2 \74\:vdd!) capacitor c=3.79745e-18
    c307 (\14\:A \23\:vdd!) capacitor c=1.23132e-17
    c308 (\17\:B \5\:vdd!) capacitor c=3.03827e-17
    c309 (\14\:net1 \1\:gnd!) capacitor c=5.53121e-17
    c310 (\17\:net1 \25\:vdd!) capacitor c=4.32685e-17
    c311 (\5\:net3 \11\:net1) capacitor c=1.06088e-17
    c312 (\4\:gnd! \17\:A) capacitor c=3.85854e-18
    c313 (\14\:net2 \1\:gnd!) capacitor c=2.58182e-17
    c314 (\6\:B \14\:net4) capacitor c=3.81977e-18
    c315 (\30\:gnd! \2\:B) capacitor c=2.10347e-17
    c316 (\9\:net4 \41\:vdd!) capacitor c=1.68639e-18
    c317 (\8\:B \10\:net4) capacitor c=3.23889e-18
    c318 (\9\:net5 \1\:gnd!) capacitor c=1.31618e-17
    c319 (\12\:B \5\:net6) capacitor c=2.90284e-17
    c320 (\58\:vdd! \1\:gnd!) capacitor c=5.07791e-17
    c321 (\6\:B \11\:A) capacitor c=3.17304e-18
    c322 (\12\:net6 \1\:vdd!) capacitor c=3.79808e-17
    c323 (\12\:net1 \1\:gnd!) capacitor c=2.48314e-17
    c324 (\13\:net2 \1\:gnd!) capacitor c=3.38814e-18
    c325 (\8\:A \51\:vdd!) capacitor c=2.84777e-17
    c326 (\14\:A \1\:gnd!) capacitor c=3.03662e-17
    c327 (net2 \1\:B) capacitor c=2.21631e-18
    c328 (\9\:net4 \34\:vdd!) capacitor c=1.72931e-17
    c329 (\13\:A \5\:vdd!) capacitor c=2.61254e-17
    c330 (\14\:net3 \1\:gnd!) capacitor c=3.21104e-17
    c331 (\14\:net1 \14\:net4) capacitor c=1.94783e-18
    c332 (\8\:A \42\:vdd!) capacitor c=2.17327e-17
    c333 (\5\:net5 \11\:A) capacitor c=1.8822e-18
    c334 (\2\:A \58\:vdd!) capacitor c=5.46777e-17
    c335 (\8\:A \41\:vdd!) capacitor c=5.47482e-17
    c336 (\4\:gnd! \16\:B) capacitor c=6.07474e-18
    c337 (\12\:B \9\:net6) capacitor c=1.62645e-18
    c338 (\4\:net3 \11\:net1) capacitor c=5.10651e-18
    c339 (\4\:net1 \1\:B) capacitor c=1.22416e-17
    c340 (\20\:net2 \1\:gnd!) capacitor c=2.66561e-17
    c341 (\8\:A \34\:vdd!) capacitor c=3.18418e-17
    c342 (\5\:net5 \18\:net1) capacitor c=1.32621e-18
    c343 (\8\:A \16\:net2) capacitor c=5.81335e-18
    c344 (\12\:B \12\:gnd!) capacitor c=1.41362e-17
    c345 (\12\:B \1\:gnd!) capacitor c=1.29202e-16
    c346 (\4\:vdd! \15\:A) capacitor c=8.69637e-18
    c347 (\8\:A \25\:vdd!) capacitor c=4.28972e-17
    c348 (\10\:B \1\:gnd!) capacitor c=2.54655e-17
    c349 (\11\:net1 \1\:gnd!) capacitor c=3.56081e-18
    c350 (\9\:net6 \1\:gnd!) capacitor c=1.9572e-17
    c351 (\7\:A \4\:net5) capacitor c=4.58233e-18
    c352 (\14\:net1 \14\:net5) capacitor c=9.11032e-18
    c353 (\14\:net4 \1\:gnd!) capacitor c=3.38072e-17
    c354 (\5\:net5 \25\:vdd!) capacitor c=1.01955e-17
    c355 (\11\:net2 \10\:net1) capacitor c=1.21492e-17
    c356 (\8\:A \10\:net3) capacitor c=1.00473e-18
    c357 (\5\:Y2 \1\:gnd!) capacitor c=2.31104e-17
    c358 (\14\:net1 I2\|net1) capacitor c=9.96107e-18
    c359 (\8\:net1 I0\|net1) capacitor c=9.73872e-18
    c360 (\2\:net4 \11\:B) capacitor c=7.60599e-18
    c361 (\6\:B I1\|net1) capacitor c=1.63593e-17
    c362 (\65\:vdd! \12\:net2) capacitor c=1.00005e-17
    c363 (\2\:Y2 \12\:net5) capacitor c=1.30971e-17
    c364 (\5\:Y3 \1\:gnd!) capacitor c=3.34456e-17
    c365 (\25\:gnd! \7\:net3) capacitor c=5.43215e-18
    c366 (\2\:net6 \17\:B) capacitor c=7.58072e-18
    c367 (\9\:net5 \21\:vdd!) capacitor c=2.17341e-18
    c368 (\38\:gnd! \14\:net5) capacitor c=1.04286e-17
    c369 (\2\:Y3 \1\:vdd!) capacitor c=3.74804e-17
    c370 (\38\:gnd! \10\:net5) capacitor c=1.05601e-17
    c371 (I3\|net1 \1\:gnd!) capacitor c=4.19914e-18
    c372 (\59\:gnd! A) capacitor c=1.05987e-17
    c373 (\2\:net6 \5\:vdd!) capacitor c=3.13147e-18
    c374 (\5\:Y1 \14\:net4) capacitor c=1.16586e-17
    c375 (\6\:net1 \68\:vdd!) capacitor c=2.83038e-17
    c376 (\14\:A \10\:net5) capacitor c=7.0341e-18
    c377 (\12\:B \38\:gnd!) capacitor c=1.93677e-17
    c378 (\11\:net2 \65\:vdd!) capacitor c=3.7997e-18
    c379 (I0\|net1 \14\:net2) capacitor c=1.0637e-17
    c380 (\12\:B \2\:Y2) capacitor c=1.21348e-18
    c381 (\45\:vdd! \18\:net2) capacitor c=2.2317e-18
    c382 (\2\:Y2 \17\:vdd!) capacitor c=1.70321e-17
    c383 (\7\:net4 \20\:net2) capacitor c=1.02893e-17
    c384 (net2 \72\:vdd!) capacitor c=1.23752e-17
    c385 (\19\:gnd! \7\:net4) capacitor c=5.43215e-18
    c386 (\8\:A \31\:vdd!) capacitor c=3.67966e-17
    c387 (\2\:net5 \9\:A) capacitor c=7.31083e-18
    c388 (I1\|net1 \20\:net2) capacitor c=1.0637e-17
    c389 (I0\|net1 \12\:net1) capacitor c=1.0162e-17
    c390 (\2\:Y0 \12\:net3) capacitor c=1.26824e-17
    c391 (I1\|net1 \47\:gnd!) capacitor c=1.75757e-17
    c392 (\14\:vdd! \15\:A) capacitor c=9.31455e-18
    c393 (\7\:net5 \18\:net1) capacitor c=1.29173e-18
    c394 (\5\:Y1 \1\:gnd!) capacitor c=1.58681e-17
    c395 (\9\:net3 \55\:vdd!) capacitor c=1.39371e-18
    c396 (I2\|net1 \11\:A) capacitor c=1.0637e-17
    c397 (\7\:net6 \12\:A) capacitor c=2.4492e-18
    c398 (\48\:vdd! \18\:net2) capacitor c=1.00005e-17
    c399 (\9\:net4 \38\:vdd!) capacitor c=1.0624e-17
    c400 (\6\:net1 \1\:B) capacitor c=5.28454e-18
    c401 (I3\|net1 \17\:A) capacitor c=1.06795e-17
    c402 (I1\|net1 \10\:B) capacitor c=1.01433e-17
    c403 (\10\:net1 \10\:net3) capacitor c=5.7433e-18
    c404 (I2\|net1 \18\:net1) capacitor c=1.01477e-17
    c405 (\16\:net2 \48\:vdd!) capacitor c=7.35064e-18
    c406 (\7\:net3 I0\|net1) capacitor c=1.56961e-17
    c407 (\31\:vdd! \9\:A) capacitor c=9.267e-18
    c408 (\10\:net5 \17\:vdd!) capacitor c=5.15742e-17
    c409 (\7\:gnd! \14\:net6) capacitor c=1.07779e-17
    c410 (\2\:A \62\:vdd!) capacitor c=1.26646e-17
    c411 (I3\|net1 \16\:B) capacitor c=1.02323e-17
    c412 (\10\:net1 \62\:vdd!) capacitor c=4.9404e-18
    c413 (\2\:net3 \58\:vdd!) capacitor c=6.51569e-18
    c414 (\16\:net1 \10\:net5) capacitor c=5.35226e-18
    c415 (\31\:vdd! \2\:net5) capacitor c=1.24183e-17
    c416 (\9\:net6 \7\:gnd!) capacitor c=3.15077e-18
    c417 (\6\:B \41\:gnd!) capacitor c=1.62507e-17
    c418 (\4\:net2 \75\:vdd!) capacitor c=5.90866e-18
    c419 (\13\:gnd! I2\|net1) capacitor c=9.21299e-18
    c420 (I2\|net1 \1\:gnd!) capacitor c=4.12294e-18
    c421 (\14\:net1 \41\:gnd!) capacitor c=5.40228e-18
    c422 (\2\:net1 \1\:gnd!) capacitor c=1.24292e-17
    c423 (\7\:net6 \5\:vdd!) capacitor c=6.0455e-18
    c424 (\38\:vdd! \10\:net4) capacitor c=1.91245e-18
    c425 (\12\:B \5\:Y2) capacitor c=1.16878e-17
    c426 (\38\:gnd! \5\:Y2) capacitor c=1.00853e-17
    c427 (\2\:net4 \41\:vdd!) capacitor c=6.51569e-18
    c428 (\8\:vdd! \2\:Y3) capacitor c=1.39378e-17
    c429 (\5\:Y0 \1\:gnd!) capacitor c=1.60011e-17
    c430 (\2\:A \2\:net3) capacitor c=1.01346e-17
    c431 (\47\:gnd! \10\:B) capacitor c=8.58091e-18
    c432 (\14\:net1 \7\:net5) capacitor c=1.86613e-17
    c433 (\2\:net3 \12\:net2) capacitor c=7.56822e-18
    c434 (\12\:B \10\:net5) capacitor c=6.8096e-18
    c435 (\2\:A \65\:vdd!) capacitor c=1.26646e-17
    c436 (\21\:vdd! \2\:Y2) capacitor c=1.39378e-17
    c437 (\50\:gnd! \14\:net3) capacitor c=1.04286e-17
    c438 (\2\:net5 \25\:vdd!) capacitor c=3.13147e-18
    c439 (\4\:net2 \3\:A) capacitor c=8.34131e-18
    c440 (\2\:Y2 \14\:A) capacitor c=1.8897e-17
    c441 (\14\:B \11\:vdd!) capacitor c=8.16738e-18
    c442 (\5\:net6 \11\:vdd!) capacitor c=3.1595e-18
    c443 (\7\:net5 \6\:A) capacitor c=2.4492e-18
    c444 (\6\:B \44\:gnd!) capacitor c=2.67413e-17
    c445 (\7\:net6 \13\:A) capacitor c=2.70264e-17
    c446 (net2 \6\:net1) capacitor c=7.48601e-18
    c447 (\47\:gnd! \8\:B) capacitor c=5.75912e-18
    c448 (\14\:net1 \44\:gnd!) capacitor c=5.7778e-18
    c449 (I1\|net1 \1\:gnd!) capacitor c=3.93857e-18
    c450 (\8\:net1 \7\:net4) capacitor c=1.90961e-17
    c451 (B \72\:vdd!) capacitor c=6.11399e-18
    c452 (\5\:Y3 \10\:net6) capacitor c=1.43904e-18
    c453 (\13\:A \14\:vdd!) capacitor c=7.35064e-18
    c454 (\2\:Y1 \34\:vdd!) capacitor c=1.87656e-17
    c455 (\7\:gnd! \5\:Y3) capacitor c=1.15559e-17
    c456 (\8\:A \2\:net5) capacitor c=1.46502e-17
    c457 (\65\:vdd! \2\:net3) capacitor c=1.24183e-17
    c458 (\79\:vdd! \3\:A) capacitor c=1.17509e-17
    c459 (\4\:gnd! I3\|net1) capacitor c=9.21299e-18
    c460 (\5\:Y2 \10\:net5) capacitor c=1.51641e-18
    c461 (\14\:vdd! \2\:net6) capacitor c=1.44346e-17
    c462 (\7\:net2 \2\:B) capacitor c=1.61907e-17
    c463 (\8\:A \55\:vdd!) capacitor c=2.21241e-17
    c464 (\50\:gnd! \10\:net3) capacitor c=6.77713e-18
    c465 (\7\:net5 \7\:A) capacitor c=2.69673e-17
    c466 (\8\:net1 \47\:gnd!) capacitor c=5.30541e-18
    c467 (\6\:B \47\:gnd!) capacitor c=3.50709e-17
    c468 (\7\:net6 \17\:A) capacitor c=1.02225e-17
    c469 (\56\:gnd! \2\:net1) capacitor c=1.00853e-17
    c470 (\59\:gnd! \5\:A) capacitor c=1.07374e-17
    c471 (\11\:net2 \6\:net1) capacitor c=1.75539e-17
    c472 (\7\:net5 \25\:vdd!) capacitor c=5.7044e-18
    c473 (\5\:net5 \28\:vdd!) capacitor c=1.83997e-18
    c474 (\3\:gnd! \10\:net6) capacitor c=1.05124e-18
    c475 (\7\:net2 \5\:A) capacitor c=1.18173e-17
    c476 (\1\:gnd! \10\:net5) capacitor c=9.68965e-18
    c477 (I0\|net1 \1\:gnd!) capacitor c=4.12294e-18
    c478 (\10\:net2 \65\:vdd!) capacitor c=4.9404e-18
    c479 (\2\:net4 \45\:vdd!) capacitor c=1.24183e-17
    c480 (\7\:A \31\:vdd!) capacitor c=7.35064e-18
    c481 (\5\:net6 \35\:gnd!) capacitor c=2.63795e-18
    c482 (\16\:net2 \10\:net3) capacitor c=2.02246e-18
    c483 (\72\:vdd! \6\:net1) capacitor c=1.32123e-17
    c484 (\62\:vdd! \13\:net1) capacitor c=1.00005e-17
    c485 (\55\:vdd! \10\:net3) capacitor c=8.5893e-18
    c486 (\5\:net4 \45\:vdd!) capacitor c=1.83997e-18
    c487 (\14\:A \21\:vdd!) capacitor c=2.3318e-17
    c488 (\5\:Y0 \14\:net3) capacitor c=1.16586e-17
    c489 (\4\:gnd! \7\:net6) capacitor c=5.45749e-18
    c490 (\7\:net4 \10\:B) capacitor c=1.63274e-18
    c491 (\8\:net1 \50\:gnd!) capacitor c=5.68036e-18
    c492 (\11\:vdd! \17\:B) capacitor c=9.95706e-18
    c493 (\44\:gnd! \5\:Y1) capacitor c=1.00853e-17
    c494 (Y0 \10\:net3) capacitor c=4.45944e-17
    c495 (\2\:net5 \19\:net1) capacitor c=7.47643e-18
    c496 (\5\:Y3 \14\:net6) capacitor c=1.21807e-17
    c497 (\7\:net4 \15\:net2) capacitor c=2.4492e-18
    c498 (\6\:B \50\:gnd!) capacitor c=1.84181e-17
    c499 (\8\:A \2\:net4) capacitor c=1.14928e-17
    c500 (\7\:net6 \1\:gnd!) capacitor c=1.86988e-17
    c501 (\8\:net1 \10\:net3) capacitor c=1.25422e-17
    c502 (\45\:vdd! \11\:B) capacitor c=1.00005e-17
    c503 (\7\:net2 \1\:A) capacitor c=3.47114e-18
    c504 (\2\:net4 \42\:vdd!) capacitor c=5.45446e-18
    c505 (\2\:Y1 \12\:net4) capacitor c=1.30971e-17
    c506 (\28\:vdd! \19\:net1) capacitor c=1.00005e-17
    c507 (\7\:net3 \14\:net2) capacitor c=9.26186e-18
    c508 (\2\:A \4\:net2) capacitor c=1.18766e-17
    c509 (\17\:net2 \2\:Y0) capacitor c=2.39409e-17
    c510 (\5\:Y1 \10\:net4) capacitor c=1.32623e-18
    c511 (\7\:net6 I3\|net1) capacitor c=1.64206e-17
    c512 (I2\|net1 \41\:gnd!) capacitor c=1.75757e-17
    c513 (\2\:net6 \4\:vdd!) capacitor c=9.77173e-18
    c514 (\13\:A \10\:net5) capacitor c=2.3739e-18
    c515 (\2\:B \53\:gnd!) capacitor c=1.62507e-17
    c516 (\56\:gnd! B) capacitor c=1.05987e-17
    c517 (\8\:A \38\:vdd!) capacitor c=2.68074e-17
    c518 (\55\:vdd! \2\:Y0) capacitor c=1.32123e-17
    c519 (\9\:net5 \38\:gnd!) capacitor c=1.8516e-18
    c520 (\17\:net2 \55\:vdd!) capacitor c=7.2264e-18
    c521 (\2\:B \2\:net1) capacitor c=9.03196e-18
    c522 (\48\:vdd! \15\:net2) capacitor c=2.04011e-18
    c523 (\8\:net1 \7\:net3) capacitor c=1.82817e-17
    c524 (\13\:gnd! \7\:net5) capacitor c=5.43215e-18
    c525 (\8\:net1 \53\:gnd!) capacitor c=5.20855e-18
    c526 (\8\:vdd! \10\:net6) capacitor c=1.04016e-17
    c527 (\41\:gnd! \18\:net1) capacitor c=9.755e-18
    c528 (\2\:Y2 \13\:A) capacitor c=2.00877e-18
    c529 (\2\:Y0 \51\:vdd!) capacitor c=2.31643e-17
    c530 (\2\:net3 \13\:net1) capacitor c=7.59478e-18
    c531 (\7\:net5 \1\:gnd!) capacitor c=1.265e-17
    c532 (\2\:net6 \15\:A) capacitor c=7.41512e-18
    c533 (\2\:A \72\:vdd!) capacitor c=2.21241e-17
    c534 (\16\:net1 \28\:vdd!) capacitor c=8.16738e-18
    c535 (\41\:gnd! \16\:net1) capacitor c=5.75912e-18
    c536 (\2\:net4 \18\:net2) capacitor c=7.58749e-18
    c537 (\14\:net1 \2\:Y1) capacitor c=1.26295e-18
    c538 (\6\:B \7\:net5) capacitor c=6.44568e-18
    c539 (\2\:Y3 \12\:net6) capacitor c=1.31298e-17
    c540 (\2\:B \56\:gnd!) capacitor c=4.0803e-17
    c541 (\1\:gnd! \10\:net3) capacitor c=1.59395e-17
    c542 (\25\:gnd! I0\|net1) capacitor c=9.21299e-18
    c543 (\7\:net4 \42\:vdd!) capacitor c=5.7044e-18
    c544 (\44\:gnd! \14\:net4) capacitor c=1.02127e-17
    c545 (I0\|net1 \53\:gnd!) capacitor c=1.75757e-17
    c546 (\2\:net5 \24\:vdd!) capacitor c=6.51569e-18
    c547 (\17\:net2 \10\:net3) capacitor c=9.30467e-18
    c548 (\79\:vdd! \4\:net2) capacitor c=1.39378e-17
    c549 (\12\:B \7\:gnd!) capacitor c=1.32156e-17
    c550 (\72\:vdd! \3\:B) capacitor c=1.31222e-17
    c551 (\12\:B \7\:net6) capacitor c=1.17106e-17
    c552 (\7\:net5 \11\:A) capacitor c=9.25058e-18
    c553 (\5\:Y2 \14\:net5) capacitor c=1.20649e-17
    c554 (\14\:B \10\:net6) capacitor c=8.94106e-18
    c555 (\11\:net2 \2\:net3) capacitor c=3.0364e-18
    c556 (\50\:gnd! \5\:Y0) capacitor c=1.00853e-17
    c557 (Y2 \10\:net5) capacitor c=4.47667e-17
    c558 (\7\:net4 \1\:gnd!) capacitor c=1.28023e-17
    c559 (\59\:gnd! \7\:net2) capacitor c=1.15559e-17
    c560 (\7\:gnd! \10\:net6) capacitor c=1.05601e-17
    c561 (\59\:gnd! \2\:B) capacitor c=4.84399e-18
    c562 (\10\:net6 \1\:vdd!) capacitor c=5.74064e-17
    c563 (\14\:net1 \5\:Y1) capacitor c=1.41025e-17
    c564 (\14\:A \2\:net6) capacitor c=5.37543e-18
    c565 (\7\:net5 I2\|net1) capacitor c=1.56961e-17
    c566 (\2\:net5 \28\:vdd!) capacitor c=1.24183e-17
    c567 (\6\:net1 \3\:B) capacitor c=1.24961e-17
    c568 (\8\:net1 \2\:Y0) capacitor c=8.14623e-19
    c569 (\7\:net3 \10\:net2) capacitor c=2.69111e-17
    c570 (\44\:gnd! \9\:net4) capacitor c=7.3535e-18