// Generated for: spectre
// Generated on: Mar 15 22:06:14 2024
// Design library name: ece4740
// Design cell name: lab2_decoder_sim
// Design view name: schematic
simulator lang=spectre
global 0 vdd!
