// Generated for: spectre
// Generated on: Mar 25 20:53:32 2024
// Design library name: ece4740
// Design cell name: lab2_nora_sim
// Design view name: schematic
simulator lang=spectre
global 0 vdd!
