// Generated for: spectre
// Generated on: Feb  3 23:03:47 2024
// Design library name: ece4740
// Design cell name: lab1sim
// Design view name: schematic
simulator lang=spectre
global 0 vdd!
